Version 4
SHEET 1 880 680
WIRE 320 64 48 64
WIRE 48 96 48 64
WIRE 320 96 320 64
WIRE 48 192 48 176
WIRE 320 192 320 176
WIRE 320 192 48 192
WIRE 48 224 48 192
FLAG 48 224 0
SYMBOL voltage 48 80 R0
WINDOW 123 0 0 Left 2
WINDOW 39 0 0 Left 2
SYMATTR InstName V1
SYMATTR Value SINE(0 12 60)
SYMBOL ind 304 80 R0
SYMATTR InstName L1
SYMATTR Value {L}
TEXT 14 248 Left 2 !.tran 0.025
TEXT 16 272 Left 2 !.param L 10uH
