Version 4
SHEET 1 880 680
WIRE 144 64 48 64
WIRE 320 64 224 64
WIRE 48 96 48 64
WIRE 320 96 320 64
WIRE 48 192 48 176
WIRE 320 192 320 176
WIRE 320 192 48 192
WIRE 48 224 48 192
FLAG 48 224 0
SYMBOL voltage 48 80 R0
WINDOW 123 0 0 Left 2
WINDOW 39 0 0 Left 2
SYMATTR InstName V1
SYMATTR Value SINE(0 12 60)
SYMBOL ind 304 80 R0
SYMATTR InstName L1
SYMATTR Value {L}
SYMATTR SpiceLine Rser={LserR}
SYMBOL res 240 48 R90
WINDOW 0 0 56 VBottom 2
WINDOW 3 32 56 VTop 2
SYMATTR InstName R1
SYMATTR Value {R}
TEXT -338 96 Left 2 !.tran 0.025
TEXT -336 160 Left 2 !.param L 75mH
TEXT -336 128 Left 2 !.param R 48
TEXT -336 192 Left 2 !.param LserR 28.26
